Version 4
SHEET 1 880 680
WIRE -272 368 -272 320
WIRE -272 368 -368 368
WIRE -192 368 -272 368
WIRE -432 432 -544 432
WIRE -128 432 -144 432
WIRE -32 432 -128 432
WIRE -544 608 -544 432
WIRE -352 608 -544 608
WIRE -32 608 -32 432
WIRE -32 608 -224 608
FLAG 160 -128 Iin
FLAG -304 -160 Vout
FLAG -336 256 Vb
FLAG -432 432 V1
FLAG -128 432 V2
SYMBOL cktsym\\vdd -272 192 R0
SYMATTR InstName U4
SYMBOL cktsym\\vsource -304 -96 R0
SYMATTR Value 0V
SYMATTR InstName Vout
SYMBOL cktsym\\isource 160 -64 R0
SYMATTR Value 0.1mA
SYMATTR InstName Iin
SYMBOL cktsym\\gnd -304 -32 R0
SYMATTR InstName U2
SYMBOL cktsym\\gnd 160 0 R0
SYMATTR InstName U3
SYMBOL cktsym\\vsource -432 -96 R0
SYMATTR Value 5V
SYMATTR InstName Vdd
SYMBOL cktsym\\gnd -432 -32 R0
SYMATTR InstName U5
SYMBOL cktsym\\vdd -432 -160 R0
SYMATTR InstName U6
SYMBOL cktsym\\pmos3 -272 256 R0
SYMATTR InstName U1
SYMBOL cktsym\\pmos3 -368 432 R0
SYMATTR InstName U7
SYMBOL cktsym\\pmos3 -192 432 R180
SYMATTR InstName U9
SYMBOL cktsym\\vsource -288 608 R270
WINDOW 3 -32 0 VBottom 2
WINDOW 0 32 0 VTop 2
SYMATTR InstName V1
TEXT 112 96 Left 2 !.include engr2420.sub
TEXT 112 128 Left 2 !.dc Vdd -0.2V 0.2V 0.05
