Version 4
SHEET 1 880 680
WIRE -64 -48 -80 -48
WIRE -144 48 -144 16
WIRE -64 48 -64 -48
WIRE -64 48 -144 48
WIRE -144 80 -144 48
WIRE 0 80 0 32
FLAG -144 48 Iin
FLAG 160 -128 Iin
FLAG 0 80 Vout
FLAG -304 -160 Vout
SYMBOL cktsym\\pmos3 0 -48 R0
SYMATTR InstName Mout
SYMBOL cktsym\\vdd -144 -112 R0
SYMATTR InstName U1
SYMBOL cktsym\\vdd 0 -112 R0
SYMATTR InstName U4
SYMBOL cktsym\\vsource -304 -96 R0
SYMATTR Value 0V
SYMATTR InstName Vout
SYMBOL cktsym\\pmos3 -144 -48 M0
SYMATTR InstName Min
SYMBOL cktsym\\isource 160 -64 R0
SYMATTR Value 0.1mA
SYMATTR InstName Iin
SYMBOL cktsym\\gnd -304 -32 R0
SYMATTR InstName U2
SYMBOL cktsym\\gnd 160 0 R0
SYMATTR InstName U3
SYMBOL cktsym\\vsource -432 -96 R0
SYMATTR Value 5V
SYMATTR InstName Vdd
SYMBOL cktsym\\gnd -432 -32 R0
SYMATTR InstName U5
SYMBOL cktsym\\vdd -432 -160 R0
SYMATTR InstName U6
SYMBOL cktsym\\ammeter2 0 16 R0
SYMATTR InstName Iout_strong
TEXT 112 96 Left 2 !.include engr2420.sub
TEXT 112 128 Left 2 !.dc Vout 0V 5V 0.05
