Version 4
SHEET 1 880 832
WIRE -272 368 -272 320
WIRE -272 368 -368 368
WIRE -192 368 -272 368
WIRE -432 432 -544 432
WIRE -128 432 -144 432
WIRE -32 432 -128 432
WIRE 32 464 32 448
WIRE -368 512 -368 496
WIRE -192 512 -192 496
WIRE -368 544 -368 528
WIRE -192 544 -192 528
WIRE 32 592 32 576
WIRE -544 624 -544 432
WIRE -352 624 -544 624
WIRE -32 624 -32 432
WIRE -32 624 -224 624
FLAG -432 432 V1
FLAG -128 432 V2
FLAG 160 464 V2
SYMBOL cktsym\\vdd -272 192 R0
SYMATTR InstName U4
SYMBOL cktsym\\vsource 160 528 R0
SYMATTR Value 2.5V
SYMATTR InstName V2
SYMBOL cktsym\\gnd 160 592 R0
SYMATTR InstName U5
SYMBOL cktsym\\pmos3 -272 256 R0
SYMATTR InstName U1
SYMBOL cktsym\\pmos3 -368 432 R0
SYMATTR InstName M1
SYMBOL cktsym\\pmos3 -192 432 M0
SYMATTR InstName M2
SYMBOL cktsym\\vsource -288 624 R90
WINDOW 3 32 0 VTop 2
WINDOW 0 -32 0 VBottom 2
SYMATTR Value -200m
SYMATTR InstName Vdm
SYMBOL cktsym\\gnd -464 256 R90
SYMATTR InstName U8
SYMBOL cktsym\\gnd -192 544 R0
SYMATTR InstName U3
SYMBOL cktsym\\gnd -368 544 R0
SYMATTR InstName U10
SYMBOL cktsym\\vsource -400 256 R90
WINDOW 3 32 0 VTop 2
WINDOW 0 -32 0 VBottom 2
SYMATTR Value 4.2V
SYMATTR InstName Vb
SYMBOL cktsym\\ammeter1 -368 512 R0
SYMATTR InstName V1
SYMBOL cktsym\\ammeter1 -192 512 R0
SYMATTR InstName V3
SYMBOL cktsym\\vsource 32 528 R0
SYMATTR Value 5
SYMATTR InstName V4
SYMBOL cktsym\\gnd 32 576 R0
SYMATTR InstName U2
SYMBOL cktsym\\vdd 32 448 R0
SYMATTR InstName U7
TEXT -104 280 Left 2 !.include engr2420.sub
TEXT -104 312 Left 2 !.dc Vdm -200m 200m
